<?xml version="1.0" encoding="UTF-8"?>

<!-- generated on 10/20/19 16:58:18 by Eclipse SUMO polyconvert Version 1.3.1
<configuration xmlns:xsi="http://www.w3.org/2001/XMLSchema-instance" xsi:noNamespaceSchemaLocation="http://sumo.dlr.de/xsd/polyconvertConfiguration.xsd">

    <input>
        <net-file value="osm.net.xml"/>
        <osm-files value="osm_bbox.osm.xml"/>
        <osm.keep-full-type value="true"/>
        <type-file value="C:\Program%20Files%20(x86)\Eclipse\Sumo\data\typemap\osmPolyconvert.typ.xml"/>
    </input>

    <output>
        <output-file value="osm.poly.xml"/>
    </output>

    <processing>
        <poi-layer-offset value="5"/>
    </processing>

    <report>
        <verbose value="true"/>
    </report>

</configuration>
-->

<additional xmlns:xsi="http://www.w3.org/2001/XMLSchema-instance" xsi:noNamespaceSchemaLocation="http://sumo.dlr.de/xsd/additional_file.xsd">
    <location netOffset="-311972.57,-5156363.89" convBoundary="-3319.72,-4280.90,6226.29,6886.56" origBoundary="24.504956,46.496041,24.626681,46.598027" projParameter="+proj=utm +zone=35 +ellps=WGS84 +datum=WGS84 +units=m +no_defs"/>

    <poly id="105327074" type="building.yes" color="255,230,230" fill="1" layer="-1.00" shape="1910.086560,429.342499 1902.056259,429.255934 1901.879716,444.220097 1909.910339,444.317773 1910.086560,429.342499"/>
    <poly id="105327075" type="building.yes" color="255,230,230" fill="1" layer="-1.00" shape="1898.654420,421.708857 1893.910181,421.665772 1893.758061,433.681925 1898.456286,433.726426 1898.654420,421.708857"/>
    <poly id="105662729" type="amenity.hospital" color="237,199,199" fill="1" layer="-1.00" shape="1027.287144,467.847093 1024.964722,460.000150 1011.396464,463.989738 1010.334066,460.407990 1012.783025,459.687209 1008.095674,443.861184 1005.783691,444.544366 1004.626985,440.643002 1017.609371,436.816099 1014.173028,425.211054 969.779643,438.272758 973.319071,450.230494 1000.470618,442.239593 1001.558774,445.909518 996.082939,447.524665 1000.745600,463.295837 1006.100118,461.728931 1007.154163,465.288693 980.169678,473.218794 983.709414,485.187647 1012.480552,476.712959 1028.520739,472.001886 1027.287144,467.847093"/>
    <poly id="105662729#1" type="building.yes" color="255,230,230" fill="1" layer="-1.00" shape="1027.287144,467.847093 1024.964722,460.000150 1011.396464,463.989738 1010.334066,460.407990 1012.783025,459.687209 1008.095674,443.861184 1005.783691,444.544366 1004.626985,440.643002 1017.609371,436.816099 1014.173028,425.211054 969.779643,438.272758 973.319071,450.230494 1000.470618,442.239593 1001.558774,445.909518 996.082939,447.524665 1000.745600,463.295837 1006.100118,461.728931 1007.154163,465.288693 980.169678,473.218794 983.709414,485.187647 1012.480552,476.712959 1028.520739,472.001886 1027.287144,467.847093"/>
    <poly id="105750347" type="amenity.bank" color="237,199,199" fill="1" layer="-1.00" shape="2295.804601,447.626564 2294.177413,456.618367 2301.377400,457.909843 2299.900286,466.040666 2305.364205,467.029557 2308.468873,449.918047 2308.414093,447.383983 2307.423398,445.112211 2305.596300,443.344352 2303.289768,442.458705 2300.758189,442.491948 2298.471659,443.507499 2296.715395,445.296408 2295.804601,447.626564"/>
    <poly id="105750347#1" type="building.yes" color="255,230,230" fill="1" layer="-1.00" shape="2295.804601,447.626564 2294.177413,456.618367 2301.377400,457.909843 2299.900286,466.040666 2305.364205,467.029557 2308.468873,449.918047 2308.414093,447.383983 2307.423398,445.112211 2305.596300,443.344352 2303.289768,442.458705 2300.758189,442.491948 2298.471659,443.507499 2296.715395,445.296408 2295.804601,447.626564"/>
    <poly id="105750352" type="building.yes" color="255,230,230" fill="1" layer="-1.00" shape="2234.773551,454.272046 2246.950682,455.944427 2248.510574,444.763700 2236.333080,443.080204 2234.773551,454.272046"/>
    <poly id="105750360" type="building.yes" color="255,230,230" fill="1" layer="-1.00" shape="2261.173489,446.510163 2259.074304,461.622285 2258.270976,466.451529 2263.262080,467.288078 2266.183175,447.201563 2261.173489,446.510163"/>
    <poly id="106692392" type="building.yes" color="255,230,230" fill="1" layer="-1.00" shape="1572.489869,437.136838 1576.760286,454.922374 1583.647921,453.542288 1579.858798,436.431463 1579.614749,432.746559 1586.103860,432.379720 1585.924517,425.067125 1572.050358,425.617112 1572.489869,437.136838"/>
    <poly id="106692400" type="amenity.parking" color="184,184,179" fill="1" layer="-1.00" shape="2191.533265,389.259386 2196.717533,354.411535 2223.175365,359.015060 2221.870073,367.240723 2217.791552,392.868056 2191.533265,389.259386"/>
    <poly id="106692405" type="building.yes" color="255,230,230" fill="1" layer="-1.00" shape="2211.761044,450.886139 2216.471027,451.564461 2218.014530,440.851338 2213.304539,440.173015 2211.761044,450.886139"/>
    <poly id="106692427" type="building.yes" color="255,230,230" fill="1" layer="-1.00" shape="2044.092559,443.315834 2045.776144,443.408652 2045.443343,447.311486 2050.752734,447.515260 2052.257002,428.795647 2045.385849,428.717741 2044.092559,443.315834"/>
    <poly id="106692451" type="building.yes" color="255,230,230" fill="1" layer="-1.00" shape="1560.685317,434.864860 1554.302998,434.961512 1554.685314,443.380028 1552.754171,443.472926 1553.006354,448.914819 1555.167857,448.825941 1555.252515,450.825250 1557.214324,450.731408 1557.235403,453.655783 1559.091924,453.631918 1559.139007,456.155108 1561.264911,456.156304 1561.421549,459.743807 1563.967442,459.676448 1563.951529,458.164378 1565.677019,458.122310 1565.479580,447.484863 1561.469563,447.608476 1561.289079,446.234940 1560.685317,434.864860"/>
    <poly id="106692479" type="building.yes" color="255,230,230" fill="1" layer="-1.00" shape="2051.224732,452.383182 2059.673806,452.612772 2059.889256,444.642999 2051.440171,444.413408 2051.224732,452.383182"/>
    <poly id="110337421" type="building.yes" color="255,230,230" fill="1" layer="-1.00" shape="2284.598800,485.083739 2282.493301,496.492521 2337.745719,506.618448 2339.851657,495.220799 2284.598800,485.083739"/>
    <poly id="110337433" type="landuse.farmland" color="194,194,130" fill="1" layer="-3.00" shape="2171.881757,577.942304 2336.143653,638.670963 2519.568994,696.547283 2702.479730,680.152078 2844.481726,663.568982 3035.853139,605.107639 3202.285933,546.636025 3369.282427,438.660943 3392.342149,431.306327 3424.236688,423.748899 3383.314034,404.056007 3336.392430,426.430407 3045.959760,548.634392 2768.481523,612.623644 2505.101850,612.688732 2340.628171,610.261952 2224.938205,561.564904 2171.881757,577.942304"/>
    <poly id="110337457" type="building.yes" color="255,230,230" fill="1" layer="-1.00" shape="2216.928313,475.195148 2215.483693,483.380609 2213.830930,492.784731 2271.977494,502.932379 2275.075378,485.353942 2216.928313,475.195148"/>
    <poly id="110337464" type="building.yes" color="255,230,230" fill="1" layer="-1.00" shape="787.912048,428.851724 785.939131,422.884750 782.000525,425.564694 770.665463,433.267128 761.115706,439.635300 764.605362,444.765660 787.912048,428.851724"/>
    <poly id="110337484" type="amenity.hospital" color="237,199,199" fill="1" layer="-1.00" shape="770.665463,433.267128 761.115706,439.635300 753.408353,444.778652 752.085041,445.664883 749.045120,447.872153 746.659204,444.431516 743.014495,446.935561 733.310230,432.944441 733.021130,432.530761 729.462435,427.402556 738.601239,421.147154 739.292534,420.669754 760.453258,406.090050 772.517312,397.886793 776.463601,395.206606 777.320490,394.623988 777.674854,395.658472 778.745955,398.772800 785.572120,418.714294 786.626504,421.784653 786.803685,422.301896 785.939131,422.884750 782.000525,425.564694 770.665463,433.267128"/>
    <poly id="122222965" type="amenity.school" color="237,199,199" fill="1" layer="-1.00" shape="732.275581,1051.819277 738.469996,1058.311688 744.291681,1064.415259 749.978895,1070.389537 754.539597,1075.175298 755.737161,1076.428351 771.109309,1094.314565 772.537452,1095.827407 760.812507,1106.756235 761.939344,1107.955870 755.025499,1114.409330 753.898661,1113.209696 720.088923,1144.719568 704.234359,1128.850361 684.086809,1107.675578 689.644959,1102.298363 699.689407,1092.366803 708.286498,1083.770230 716.048609,1076.211621 716.869370,1071.492770 709.853719,1063.757923 698.356556,1050.823397 692.148666,1043.897689 690.748404,1042.295026 694.791317,1039.033425 704.753451,1031.395537 720.397417,1033.024162 746.597223,1015.952609 755.216891,1028.153307 757.914772,1031.762227 747.802685,1039.515886 732.275581,1051.819277"/>
    <poly id="130036842" type="waterway.stream" color="181,209,209" fill="0" layer="-4.00" shape="787.908463,479.067000 667.264245,554.939124 653.907148,562.760043 639.118664,569.958025 623.356476,574.461355 603.875530,579.569318 590.090031,585.201529 576.774711,592.632067 565.894244,603.345983 555.476454,617.348778 548.518078,630.054326 543.773572,641.390001 540.632709,653.209822 529.699150,711.471520 508.813076,825.206385 505.953839,837.440138 502.238177,848.287968 496.403105,861.815160 475.919900,900.398213 405.568560,1030.693452 394.297604,1051.540798 374.140706,1076.111676 359.478394,1088.066704 346.816328,1095.978051 291.356964,1121.200018 276.001190,1129.595533 263.630910,1137.753811 237.987004,1158.091273 227.881860,1159.617357 205.412658,1153.931163 197.391861,1153.879981 190.158172,1156.440260 127.986865,1192.827384 55.756938,1229.494468"/>
    <poly id="130036843" type="waterway.stream" color="181,209,209" fill="0" layer="-4.00" shape="853.671151,438.094121 787.908463,479.067000"/>
    <poly id="135724716" type="building.residential" color="255,230,230" fill="1" layer="-1.00" shape="455.759677,972.893128 450.570779,972.853866 456.132645,962.649414 463.490983,967.314841 467.127073,967.268808 467.263185,972.647586 455.759677,972.893128"/>
    <poly id="135725617" type="building.yes" color="255,230,230" fill="1" layer="-1.00" shape="464.029866,710.749361 469.006716,712.852774 476.157634,695.970438 476.973107,694.054430 467.268861,689.973322 464.508184,696.476262 466.724306,697.408511 464.335445,703.032414 466.854714,704.088724 464.029866,710.749361"/>
    <poly id="135725852" type="building.yes" color="255,230,230" fill="1" layer="-1.00" shape="464.329289,524.392792 459.961457,520.402013 464.549618,515.410596 469.162370,519.627344 464.574210,524.618757 464.329289,524.392792"/>
    <poly id="135726021" type="building.yes" color="255,230,230" fill="1" layer="-1.00" shape="513.106536,415.865727 515.016816,417.574889 522.152203,409.334827 517.724898,404.912094 516.189062,406.616863 514.120953,404.768009 515.026069,403.761225 511.450770,400.579980 504.565833,408.233952 513.106536,415.865727"/>
    <poly id="144887117" type="landuse.cemetery" color="194,194,130" fill="1" layer="-3.00" shape="2097.306284,1321.441456 2067.616924,1249.051026 2040.436082,1153.950834 2026.669089,1105.783385 2023.065538,1093.159831 2018.009470,1075.476078 2015.380542,1066.348141 2012.657707,1056.911684 2004.626519,1029.076331 2020.879762,1010.614824 2040.189222,1004.193187 2060.336097,1004.040762 2071.662811,1006.539645 2085.910958,1012.707871 2136.192985,1038.021101 2142.880407,1042.130780 2149.591882,1112.936681 2118.212782,1128.871062 2148.386295,1259.958418 2137.110063,1260.583073 2142.918516,1280.790650 2127.081772,1281.833554 2135.223506,1313.291315 2132.997950,1313.782354 2097.306284,1321.441456"/>
    <poly id="167410135" type="building.yes" color="255,230,230" fill="1" layer="-1.00" shape="1029.052731,739.432087 1038.040188,746.906143 1041.252237,743.069905 1054.177453,753.302802 1056.384693,750.476356 1063.821740,740.815149 1027.498057,712.231663 1014.821018,726.659370 1023.003008,733.646706 1025.453525,730.745995 1032.027680,735.870098 1029.052731,739.432087"/>
    <poly id="167410139" type="building.yes" color="255,230,230" fill="1" layer="-1.00" shape="998.561056,785.540661 1000.469021,787.183303 995.873581,792.441452 1004.214565,799.112432 1012.189090,790.457741 1017.979646,784.139444 987.099236,757.612268 973.479405,773.559556 981.108208,780.030095 985.781454,774.558214 987.350126,775.899933 985.927210,777.534359 997.093169,787.209840 998.561056,785.540661"/>
    <poly id="167410140" type="building.yes" color="255,230,230" fill="1" layer="-1.00" shape="561.113937,649.927990 564.963017,657.738595 570.693413,654.936231 566.852006,647.125385 561.113937,649.927990"/>
    <poly id="167410146" type="building.yes" color="255,230,230" fill="1" layer="-1.00" shape="541.192159,1166.122873 555.062773,1165.014436 554.105710,1152.954607 551.594895,1153.154783 540.234724,1154.051934 541.192159,1166.122873"/>
    <poly id="167410147" type="building.yes" color="255,230,230" fill="1" layer="-1.00" shape="1012.491202,733.215436 1008.038993,739.136454 1014.677349,744.102848 1019.129560,738.181835 1012.491202,733.215436"/>
    <poly id="167410149" type="building.yes" color="255,230,230" fill="1" layer="-1.00" shape="869.574042,745.677212 857.791281,751.046659 860.959341,757.944266 872.734423,752.575063 869.574042,745.677212"/>
    <poly id="167410150" type="building.yes" color="255,230,230" fill="1" layer="-1.00" shape="1402.659822,1102.263527 1423.592490,1125.095718 1433.019163,1116.496875 1412.086849,1093.675763 1402.659822,1102.263527"/>
    <poly id="167410152" type="building.yes" color="255,230,230" fill="1" layer="-1.00" shape="863.403635,746.413121 876.980244,740.732378 870.809342,726.075654 857.232704,731.756410 863.403635,746.413121"/>
    <poly id="167410154" type="building.yes" color="255,230,230" fill="1" layer="-1.00" shape="906.713175,731.637886 902.307602,725.668291 896.318350,729.779602 900.536033,735.877346 906.713175,731.637886"/>
    <poly id="167410156" type="building.yes" color="255,230,230" fill="1" layer="-1.00" shape="632.447278,609.769696 637.125243,618.822556 644.301984,615.141317 639.624027,606.088452 632.447278,609.769696"/>
    <poly id="167410157" type="building.yes" color="255,230,230" fill="1" layer="-1.00" shape="873.120193,632.847548 858.419512,646.604165 865.394760,654.017911 880.095092,640.250199 873.120193,632.847548"/>
    <poly id="167410158" type="building.yes" color="255,230,230" fill="1" layer="-1.00" shape="1582.470889,1399.396764 1593.451784,1398.657824 1592.191251,1379.923112 1581.202656,1380.662289 1582.470889,1399.396764"/>
    <poly id="167410159" type="building.yes" color="255,230,230" fill="1" layer="-1.00" shape="1145.468552,547.319131 1142.697375,537.361750 1136.366298,539.114416 1139.129817,549.072032 1145.468552,547.319131"/>
    <poly id="167410161" type="building.yes" color="255,230,230" fill="1" layer="-1.00" shape="888.629780,643.745318 897.298642,648.848965 899.909400,644.430674 891.248546,639.337898 888.629780,643.745318"/>
    <poly id="167410163" type="building.yes" color="255,230,230" fill="1" layer="-1.00" shape="1581.240417,1359.985723 1589.745764,1359.590031 1589.391530,1352.082625 1580.886173,1352.478318 1581.240417,1359.985723"/>
    <poly id="167410165" type="building.yes" color="255,230,230" fill="1" layer="-1.00" shape="885.268931,669.807692 888.179830,673.354473 897.664035,665.620525 894.753138,662.073740 885.268931,669.807692"/>
    <poly id="167410166" type="building.yes" color="255,230,230" fill="1" layer="-1.00" shape="1025.815451,639.936168 1027.650689,648.409873 1041.845420,645.335164 1040.010545,636.872566 1025.815451,639.936168"/>
    <poly id="167410167" type="building.yes" color="255,230,230" fill="1" layer="-1.00" shape="1582.776550,1342.610618 1595.484876,1343.141922 1596.875852,1309.856026 1584.167800,1309.335829 1582.776550,1342.610618"/>
    <poly id="167410168" type="building.yes" color="255,230,230" fill="1" layer="-1.00" shape="541.264839,840.716338 540.654271,845.528799 547.457179,846.385621 548.067752,841.573161 541.264839,840.716338"/>
    <poly id="167410170" type="building.yes" color="255,230,230" fill="1" layer="-1.00" shape="911.374083,660.525202 916.419198,664.840109 921.783184,658.623894 916.737725,654.297870 911.374083,660.525202"/>
    <poly id="167410174" type="building.yes" color="255,230,230" fill="1" layer="-1.00" shape="1129.136993,1080.759282 1126.941711,1079.003146 1124.340265,1082.231020 1120.445396,1079.114939 1115.102343,1085.752976 1107.645661,1095.014367 1113.735808,1099.886571 1121.953644,1089.678552 1129.136993,1080.759282"/>
    <poly id="167410175" type="building.yes" color="255,230,230" fill="1" layer="-1.00" shape="1271.759315,1018.998172 1278.691972,1027.548084 1284.846740,1022.586778 1281.839087,1018.875989 1284.063671,1011.889532 1274.934596,1009.001707 1271.759315,1018.998172"/>
    <poly id="167410177" type="building.yes" color="255,230,230" fill="1" layer="-1.00" shape="639.624027,606.088452 644.301984,615.141317 645.239909,616.680444 658.665590,609.591416 655.315784,603.277866 650.958947,605.581597 648.717955,601.369099 639.624027,606.088452"/>
    <poly id="167410178" type="building.yes" color="255,230,230" fill="1" layer="-1.00" shape="569.409215,871.018604 569.325676,869.808908 563.237430,870.220050 564.107797,882.949876 570.188363,882.538971 570.119723,881.562373 575.866485,881.028357 574.880325,870.504254 569.409215,871.018604"/>
    <poly id="167410180" type="building.yes" color="255,230,230" fill="1" layer="-1.00" shape="895.783968,822.886002 899.741824,826.044493 891.964260,835.849922 896.015143,839.038896 898.413022,835.928441 909.420019,822.108218 905.376800,818.918997 904.084597,820.560522 900.158439,817.434414 895.783968,822.886002"/>
    <poly id="167410211" type="leisure.track" color="207,245,201" fill="1" layer="-2.00" shape="1341.813801,1038.611800 1376.631691,1080.678597 1384.498589,1083.950294 1392.962443,1083.689090 1399.914038,1080.427191 1404.810965,1075.237902 1407.512386,1067.536109 1407.774449,1060.610263 1404.765259,1054.608375 1371.573920,1015.761031 1365.797541,1011.601809 1358.589462,1010.534156 1350.867653,1011.717851 1343.721085,1016.620726 1340.260537,1022.599860 1339.196518,1029.895244 1341.813801,1038.611800"/>
    <poly id="167410211#1" type="sport.athletics" color="79,230,125" fill="1" layer="-2.00" shape="1341.813801,1038.611800 1376.631691,1080.678597 1384.498589,1083.950294 1392.962443,1083.689090 1399.914038,1080.427191 1404.810965,1075.237902 1407.512386,1067.536109 1407.774449,1060.610263 1404.765259,1054.608375 1371.573920,1015.761031 1365.797541,1011.601809 1358.589462,1010.534156 1350.867653,1011.717851 1343.721085,1016.620726 1340.260537,1022.599860 1339.196518,1029.895244 1341.813801,1038.611800"/>
    <poly id="167410214" type="leisure.pitch" color="207,245,201" fill="1" layer="-2.00" shape="1397.067574,1057.815437 1367.889596,1023.192888 1349.323048,1038.747026 1378.501071,1073.369487 1397.067574,1057.815437"/>
    <poly id="167410214#1" type="sport.multi" color="79,230,125" fill="1" layer="-2.00" shape="1397.067574,1057.815437 1367.889596,1023.192888 1349.323048,1038.747026 1378.501071,1073.369487 1397.067574,1057.815437"/>
    <poly id="172260661" type="building.yes" color="255,230,230" fill="1" layer="-1.00" shape="1318.841039,936.043879 1331.999650,918.565700 1322.974966,910.113673 1309.686574,928.607962 1318.841039,936.043879"/>
    <poly id="172260662" type="building.yes" color="255,230,230" fill="1" layer="-1.00" shape="1308.619778,701.400189 1321.335185,707.335973 1324.949771,699.628207 1312.234352,693.692415 1308.619778,701.400189"/>
    <poly id="172260663" type="building.yes" color="255,230,230" fill="1" layer="-1.00" shape="1441.274560,590.081356 1449.690803,592.235168 1450.726529,588.243864 1442.309938,586.078940 1441.274560,590.081356"/>
    <poly id="172260664" type="building.yes" color="255,230,230" fill="1" layer="-1.00" shape="1322.459498,756.437385 1341.412688,773.769570 1345.934379,768.847631 1326.973865,751.526780 1322.459498,756.437385"/>
    <poly id="172260665" type="building.yes" color="255,230,230" fill="1" layer="-1.00" shape="1292.281630,838.624932 1299.550880,831.226936 1290.989471,822.871862 1283.720220,830.269869 1292.281630,838.624932"/>
    <poly id="172260666" type="building.yes" color="255,230,230" fill="1" layer="-1.00" shape="1282.784907,696.080791 1287.432274,690.754545 1281.044955,685.212900 1279.384486,687.110387 1271.057766,680.149431 1268.037680,683.746051 1282.784907,696.080791"/>
    <poly id="172260667" type="building.yes" color="255,230,230" fill="1" layer="-1.00" shape="1275.613107,826.438486 1281.666606,832.357445 1283.720220,830.269869 1290.989471,822.871862 1292.105539,821.736345 1286.052040,815.817375 1275.613107,826.438486"/>
    <poly id="172260668" type="building.yes" color="255,230,230" fill="1" layer="-1.00" shape="1149.979479,679.907530 1147.042424,678.241028 1143.649814,684.184806 1156.398279,691.431610 1162.036318,682.404454 1152.232107,676.312315 1149.979479,679.907530"/>
    <poly id="172260669" type="building.yes" color="255,230,230" fill="1" layer="-1.00" shape="1291.661204,683.806317 1293.308077,681.219702 1289.276874,678.663804 1285.558340,684.495217 1294.385813,690.773423 1296.769424,687.441146 1291.661204,683.806317"/>
    <poly id="172260670" type="building.yes" color="255,230,230" fill="1" layer="-1.00" shape="1526.555733,443.313030 1526.199350,459.383859 1531.851749,459.509872 1531.884018,457.818368 1532.033357,450.962751 1534.137631,451.009092 1534.240134,446.368152 1532.158860,446.321103 1532.223481,443.438571 1526.555733,443.313030"/>
    <poly id="172260674" type="leisure.swimming_pool" color="207,245,201" fill="1" layer="-2.00" shape="1302.795034,664.611134 1306.160597,666.486917 1308.982781,661.450593 1305.624884,659.574572 1302.795034,664.611134"/>
    <poly id="172260675" type="building.yes" color="255,230,230" fill="1" layer="-1.00" shape="1336.487341,913.789380 1341.738649,908.144235 1350.103095,919.074587 1346.763151,922.747777 1336.487341,913.789380"/>
    <poly id="172621173" type="landuse.grass" color="194,194,130" fill="1" layer="-3.00" shape="1492.726378,1237.573002 1483.701485,1243.023021 1484.384139,1247.739847 1417.756044,1252.030969 1416.773463,1249.781321 1411.455784,1246.553267 1492.726378,1237.573002"/>
    <poly id="172642899" type="building.yes" color="255,230,230" fill="1" layer="-1.00" shape="1897.074271,873.622571 1902.895699,873.020792 1902.041091,864.950464 1896.227664,865.563118 1897.074271,873.622571"/>
    <poly id="172642900" type="building.yes" color="255,230,230" fill="1" layer="-1.00" shape="1896.758399,853.134921 1902.761997,852.716606 1902.052844,842.639889 1896.049578,843.069314 1896.758399,853.134921"/>
    <poly id="172642901" type="building.yes" color="255,230,230" fill="1" layer="-1.00" shape="1820.674891,976.425917 1825.759556,978.816250 1830.207320,969.492747 1825.083974,967.092479 1820.674891,976.425917"/>
    <poly id="172642903" type="building.yes" color="255,230,230" fill="1" layer="-1.00" shape="1777.512414,1098.882065 1781.020628,1104.156955 1791.025397,1095.874551 1789.781861,1094.366921 1786.935422,1090.895614 1777.512414,1098.882065"/>
    <poly id="172642905" type="building.yes" color="255,230,230" fill="1" layer="-1.00" shape="1751.207745,1061.544583 1741.993509,1068.835109 1747.765859,1075.864210 1756.987415,1068.562346 1751.207745,1061.544583"/>
    <poly id="172642907" type="building.yes" color="255,230,230" fill="1" layer="-1.00" shape="1751.973976,1116.317907 1757.156918,1121.652418 1765.689594,1112.914830 1760.350449,1107.740827 1751.973976,1116.317907"/>
    <poly id="172642908" type="building.yes" color="255,230,230" fill="1" layer="-1.00" shape="1719.926069,885.071554 1726.429478,891.911298 1731.395904,887.220638 1724.884830,880.381125 1719.926069,885.071554"/>
    <poly id="172642909" type="building.yes" color="255,230,230" fill="1" layer="-1.00" shape="1768.964949,1099.167551 1760.350449,1107.740827 1765.689594,1112.914830 1766.083527,1113.247472 1767.727173,1111.550828 1772.781064,1118.924609 1779.410468,1114.416319 1768.964949,1099.167551"/>
    <poly id="172642910" type="building.yes" color="255,230,230" fill="1" layer="-1.00" shape="1770.412207,1150.394299 1771.665743,1148.987715 1760.965812,1139.430019 1745.993856,1155.606230 1762.115785,1168.544740 1767.551082,1163.138984 1766.042649,1161.750735 1773.688227,1153.363008 1770.412207,1150.394299"/>
    <poly id="172642911" type="building.yes" color="255,230,230" fill="1" layer="-1.00" shape="1816.204121,771.144821 1818.566486,783.317136 1824.364254,782.193293 1823.434454,777.417323 1828.454651,776.462005 1827.346686,770.634954 1822.303484,771.590980 1821.994234,770.021212 1816.204121,771.144821"/>
    <poly id="172642934" type="landuse.cemetery" color="194,194,130" fill="1" layer="-3.00" shape="1579.945895,1124.110348 1586.296971,1085.188508 1589.915721,1082.841470 1595.049202,1079.346684 1579.868789,1056.892680 1571.294404,1044.111179 1568.195843,1040.681106 1600.681334,1014.855823 1628.448537,980.345462 1616.182850,959.592137 1633.080879,948.883780 1600.289638,880.160947 1591.331132,861.396613 1584.841619,847.794536 1578.638966,834.039037 1574.448279,822.568214 1575.101358,812.138099 1579.140019,802.993838 1587.477319,795.129536 1605.871412,793.606084 1620.028533,792.802725 1634.742124,792.126833 1667.117713,791.073571 1671.851073,801.482282 1689.004158,788.074790 1712.011719,810.009907 1714.048447,822.815043 1794.735295,890.141279 1830.305276,919.831112 1820.782228,934.549214 1811.488405,949.482711 1800.359594,967.375506 1789.105994,985.450117 1781.214524,998.071649 1774.566295,1013.435345 1765.493859,1034.801609 1755.629736,1048.151243 1749.874527,1055.880184 1741.989333,1068.201297 1739.600660,1073.613321 1731.287089,1092.453880 1728.158069,1096.998975 1725.896391,1100.305080 1721.511860,1106.690583 1718.721136,1110.758148 1715.739303,1115.098525 1704.709643,1127.472083 1695.269712,1138.640020 1646.206145,1117.051991 1622.133713,1106.850097 1607.878552,1101.461686 1600.731414,1128.752413 1598.266629,1128.205574 1579.945895,1124.110348"/>
    <poly id="172709958" type="building.yes" color="255,230,230" fill="1" layer="-1.00" shape="2273.129960,1248.062181 2286.288429,1245.011046 2283.477187,1232.930242 2270.318693,1235.981383 2273.129960,1248.062181"/>
    <poly id="172709965" type="building.yes" color="255,230,230" fill="1" layer="-1.00" shape="2285.557855,1233.466908 2291.710784,1232.176878 2290.083954,1224.430527 2283.930676,1225.709446 2285.557855,1233.466908"/>
    <poly id="172709968" type="building.yes" color="255,230,230" fill="1" layer="-1.00" shape="2294.519160,1266.401094 2304.521662,1263.780578 2301.237859,1251.302778 2291.235337,1253.923299 2294.519160,1266.401094"/>
    <poly id="172709976" type="building.yes" color="255,230,230" fill="1" layer="-1.00" shape="2330.238447,1190.154792 2323.822789,1155.652084 2314.491126,1157.384463 2316.173190,1166.430363 2312.419748,1167.146199 2317.299754,1192.620746 2330.238447,1190.154792"/>
    <poly id="173022489" type="building.yes" color="255,230,230" fill="1" layer="-1.00" shape="1810.877373,1492.588145 1794.548445,1494.325538 1796.732993,1515.178302 1813.053857,1513.430038 1810.877373,1492.588145"/>
    <poly id="173022506" type="landuse.military" color="153,153,92" fill="1" layer="-3.00" shape="1854.280267,1779.772473 1831.549380,1727.076813 1828.930135,1721.007134 1815.501951,1690.346442 1809.421695,1666.822085 1805.950235,1645.041356 1803.562518,1621.825909 1791.221969,1484.729807 1826.956137,1482.228012 1827.389980,1487.097107 1832.592120,1486.836826 1834.653250,1486.739995 1837.702114,1481.341037 1913.180213,1474.980281 1944.640842,1551.285985 1910.336925,1566.088234 1910.577311,1569.161561 1911.075383,1576.119572 1912.993284,1603.030798 1930.345937,1601.406784 1942.358084,1600.280823 1943.874144,1616.382953 1932.247031,1617.552671 1933.064992,1624.434107 1939.040378,1623.872069 1940.042903,1634.506978 1940.587310,1640.229049 1934.611939,1640.791085 1935.752284,1652.912068 1941.107739,1652.402475 1941.370224,1655.197079 1942.778996,1670.056874 1937.477217,1670.564815 1938.207541,1678.338688 1948.375505,1677.380705 1949.866984,1693.183305 1950.681974,1705.703563 1939.620813,1711.793920 1946.992944,1741.162029 1891.246950,1761.284399 1891.671946,1763.873808 1854.280267,1779.772473"/>
    <poly id="173031883" type="amenity.theatre" color="237,199,199" fill="1" layer="-1.00" shape="1005.056501,935.039746 1014.843179,922.703290 1015.632944,921.689026 1018.325490,918.180244 1019.350972,916.847280 1024.463400,910.194051 1025.488885,908.861088 1028.189110,905.352073 1029.698233,906.506571 1041.727291,911.840161 1045.515795,916.227377 1046.287982,917.126616 1046.550260,917.418797 1050.705169,922.239561 1050.959780,922.531979 1051.739632,923.430982 1055.512446,927.807567 1058.790504,940.507458 1059.686399,942.181403 1055.752491,944.260460 1054.265161,945.051604 1046.805174,948.996927 1045.317504,949.776962 1041.391272,951.855792 1040.243795,952.469605 1038.703925,952.305899 1030.697219,951.474635 1027.409102,951.109184 1022.362670,955.180107 1020.044740,957.153613 1008.706796,943.891071 1006.814874,945.495510 1005.039568,943.426137 1006.931491,941.821697 1009.257090,939.847949 1006.943266,937.239135 1005.056501,935.039746"/>
    <poly id="173031885" type="amenity.biergarten" color="237,199,199" fill="1" layer="-1.00" shape="960.966520,947.614126 958.337574,945.982677 946.319176,938.513528 950.084539,931.234587 946.365847,928.858322 958.518313,905.182161 979.314919,917.829548 960.966520,947.614126"/>
    <poly id="173031885#1" type="building.apartments" color="255,230,230" fill="1" layer="-1.00" shape="960.966520,947.614126 958.337574,945.982677 946.319176,938.513528 950.084539,931.234587 946.365847,928.858322 958.518313,905.182161 979.314919,917.829548 960.966520,947.614126"/>