<?xml version="1.0" encoding="UTF-8"?>

<routes>
  <!-- <flow id="f" begin="0" vehsPerHour="500" from="695609207" to="193095323"/>
  <flow id="f2" begin="0" vehsPerHour="500" from="-193095323" to="-695609207"/> -->

  <flow id="f" begin="0" vehsPerHour="500" from="31531924#0-AddedOnRampEdge" to="-695609207"/>
  <flow id="f2" begin="0" vehsPerHour="500" from="695609207" to="695621989"/>
</routes>